<edges>
    <edge id="N2C" from="north" to="center" priority="1" numLanes="1" speed="13.89"/>
    <edge id="C2N" from="center" to="north" priority="1" numLanes="1" speed="13.89"/>
    <edge id="S2C" from="south" to="center" priority="1" numLanes="1" speed="13.89"/>
    <edge id="C2S" from="center" to="south" priority="1" numLanes="1" speed="13.89"/>
    <edge id="E2C" from="east" to="center" priority="1" numLanes="1" speed="13.89"/>
    <edge id="C2E" from="center" to="east" priority="1" numLanes="1" speed="13.89"/>
    <edge id="W2C" from="west" to="center" priority="1" numLanes="1" speed="13.89"/>
    <edge id="C2W" from="center" to="west" priority="1" numLanes="1" speed="13.89"/>
</edges>
